tests/data/short_circuit/dummy-test-3ph/input.json
{
  "node": [
    {
      "id": 1,
      "u_rated": 10e3,
      "extra": "First Node"
    },
    {
      "id": 2,
      "u_rated": 10e3,
      "extra": "Second Node"
    },
    {
      "id": 3,
      "u_rated": 10e3,
      "extra": "Third Node"
    }
  ],
  "line": [
    {
      "id": 4,
      "from_node": 1,
      "to_node": 2,
      "from_status": 1,
      "to_status": 1,
      "r1": 10.0,
      "x1": 0.0,
      "c1": 0.0,
      "tan1": 0.0,
      "r0": 10.0,
      "x0": 0.0,
      "c0": 0.0,
      "tan0": 0.0,
      "i_n": 1e3
    }
  ],
  "link": [
    {
      "id": 5,
      "from_node": 2,
      "to_node": 3,
      "from_status": 1,
      "to_status": 1
    }
  ],
  "source": [
    {
      "id": 6,
      "node": 1,
      "status": 1,
      "u_ref": 1.05,
      "sk": 1e12
    },
    {
      "id": 10,
      "node": 3,
      "status": 0,
      "u_ref": 1.05,
      "sk": 1e12
    }
  ],
  "sym_load": [
    {
      "id": 7,
      "node": 3,
      "status": 1,
      "type": 1,
      "p_specified": 0.5e6,
      "q_specified": 0.0
    }
  ],
  "asym_load": [
    {
      "id": 8,
      "node": 3,
      "status": 1,
      "type": 1,
      "p_specified": [166666.66666666666, 166666.66666666666, 166666.66666666666],
      "q_specified": [0.0, 0.0, 0.0]
    }
  ],
  "shunt": [
    {
      "id": 9,
      "node": 3,
      "status": 1,
      "g1": 0.015,
      "b1": 0.0,
      "g0": 0.015,
      "b0": 0.0
    }
  ],
  "fault":  [
    {
      "id": 10,
      "node": 2,
      "status": 1,
      "type": 3,
      "phase": 2,
      "r_f": 0.01,
      "x_f": 0.05
    }
  ]
}